24868421
  -OEChem-05042401572D

 62 66  0     1  0  0  0  0  0999 V2000
    8.4059    0.4850    0.0000 O   0  0  0  0  0  0  0  0  0  0  0  0
    6.8671   -1.0150    0.0000 O   0  0  0  0  0  0  0  0  0  0  0  0
    7.3356    2.0722    0.0000 O   0  0  0  0  0  0  0  0  0  0  0  0
    5.5402    2.0983    0.0000 O   0  0  0  0  0  0  0  0  0  0  0  0
    8.1271    2.2451    0.0000 O   0  0  0  0  0  0  0  0  0  0  0  0
    5.1350   -1.0150    0.0000 O   0  0  0  0  0  0  0  0  0  0  0  0
    6.8671   -3.0150    0.0000 O   0  0  0  0  0  0  0  0  0  0  0  0
    5.1350   -4.0150    0.0000 O   0  0  0  0  0  0  0  0  0  0  0  0
    3.4030   -3.0150    0.0000 O   0  0  0  0  0  0  0  0  0  0  0  0
    5.8410    3.8041    0.0000 O   0  0  0  0  0  0  0  0  0  0  0  0
    2.5369   -1.5150    0.0000 O   0  0  0  0  0  0  0  0  0  0  0  0
    6.8671   -0.0150    0.0000 C   0  0  2  0  0  0  0  0  0  0  0  0
    6.8671    0.9850    0.0000 C   0  0  1  0  0  0  0  0  0  0  0  0
    5.8588    0.9891    0.0000 C   0  0  1  0  0  0  0  0  0  0  0  0
    7.8181   -0.3240    0.0000 C   0  0  2  0  0  0  0  0  0  0  0  0
    5.8588   -0.0192    0.0000 C   0  0  0  0  0  0  0  0  0  0  0  0
    6.8283    1.2105    0.0000 C   0  0  1  0  0  0  0  0  0  0  0  0
    7.6544    0.6568    0.0000 C   0  0  0  0  0  0  0  0  0  0  0  0
    7.8181    1.2940    0.0000 C   0  0  0  0  0  0  0  0  0  0  0  0
    6.5250    1.9247    0.0000 C   0  0  0  0  0  0  0  0  0  0  0  0
    8.1271   -1.2751    0.0000 C   0  0  0  0  0  0  0  0  0  0  0  0
    6.0010   -1.5150    0.0000 C   0  0  2  0  0  0  0  0  0  0  0  0
    6.0010   -2.5150    0.0000 C   0  0  1  0  0  0  0  0  0  0  0  0
    5.1350   -3.0150    0.0000 C   0  0  2  0  0  0  0  0  0  0  0  0
    4.2690   -1.5150    0.0000 C   0  0  1  0  0  0  0  0  0  0  0  0
    4.2690   -2.5150    0.0000 C   0  0  1  0  0  0  0  0  0  0  0  0
    5.1982    3.0380    0.0000 C   0  0  0  0  0  0  0  0  0  0  0  0
    3.4030   -1.0150    0.0000 C   0  0  0  0  0  0  0  0  0  0  0  0
    4.2134    3.2117    0.0000 C   0  0  0  0  0  0  0  0  0  0  0  0
    3.5706    2.4456    0.0000 C   0  0  0  0  0  0  0  0  0  0  0  0
    3.8714    4.1514    0.0000 C   0  0  0  0  0  0  0  0  0  0  0  0
    2.5858    2.6193    0.0000 C   0  0  0  0  0  0  0  0  0  0  0  0
    2.8866    4.3250    0.0000 C   0  0  0  0  0  0  0  0  0  0  0  0
    2.2438    3.5590    0.0000 C   0  0  0  0  0  0  0  0  0  0  0  0
    5.1942    1.5191    0.0000 H   0  0  0  0  0  0  0  0  0  0  0  0
    5.2388   -0.0200    0.0000 H   0  0  0  0  0  0  0  0  0  0  0  0
    5.8605   -0.6392    0.0000 H   0  0  0  0  0  0  0  0  0  0  0  0
    6.4622    1.7109    0.0000 H   0  0  0  0  0  0  0  0  0  0  0  0
    8.2720    0.6033    0.0000 H   0  0  0  0  0  0  0  0  0  0  0  0
    7.8602    1.2416    0.0000 H   0  0  0  0  0  0  0  0  0  0  0  0
    7.1356    2.0323    0.0000 H   0  0  0  0  0  0  0  0  0  0  0  0
    6.5250    2.5447    0.0000 H   0  0  0  0  0  0  0  0  0  0  0  0
    7.5375   -1.4667    0.0000 H   0  0  0  0  0  0  0  0  0  0  0  0
    8.3187   -1.8647    0.0000 H   0  0  0  0  0  0  0  0  0  0  0  0
    8.7168   -1.0835    0.0000 H   0  0  0  0  0  0  0  0  0  0  0  0
    6.0010   -0.8950    0.0000 H   0  0  0  0  0  0  0  0  0  0  0  0
    7.0301    2.6118    0.0000 H   0  0  0  0  0  0  0  0  0  0  0  0
    6.0010   -3.1350    0.0000 H   0  0  0  0  0  0  0  0  0  0  0  0
    4.5981   -3.3250    0.0000 H   0  0  0  0  0  0  0  0  0  0  0  0
    4.2690   -0.8950    0.0000 H   0  0  0  0  0  0  0  0  0  0  0  0
    4.2690   -3.1350    0.0000 H   0  0  0  0  0  0  0  0  0  0  0  0
    6.8671   -3.6350    0.0000 H   0  0  0  0  0  0  0  0  0  0  0  0
    3.8015   -0.5401    0.0000 H   0  0  0  0  0  0  0  0  0  0  0  0
    3.0044   -0.5401    0.0000 H   0  0  0  0  0  0  0  0  0  0  0  0
    4.5981   -4.3250    0.0000 H   0  0  0  0  0  0  0  0  0  0  0  0
    3.4030   -3.6350    0.0000 H   0  0  0  0  0  0  0  0  0  0  0  0
    2.0000   -1.2050    0.0000 H   0  0  0  0  0  0  0  0  0  0  0  0
    3.7827    1.8630    0.0000 H   0  0  0  0  0  0  0  0  0  0  0  0
    4.2699    4.6263    0.0000 H   0  0  0  0  0  0  0  0  0  0  0  0
    2.1873    2.1443    0.0000 H   0  0  0  0  0  0  0  0  0  0  0  0
    2.6745    4.9076    0.0000 H   0  0  0  0  0  0  0  0  0  0  0  0
    1.6332    3.6666    0.0000 H   0  0  0  0  0  0  0  0  0  0  0  0
  1 15  1  0  0  0  0
  1 19  1  0  0  0  0
 12  2  1  6  0  0  0
 22  2  1  1  0  0  0
 17  3  1  6  0  0  0
  3 47  1  0  0  0  0
  4 20  1  0  0  0  0
  4 27  1  0  0  0  0
  5 19  2  0  0  0  0
  6 22  1  0  0  0  0
  6 25  1  0  0  0  0
 23  7  1  6  0  0  0
  7 52  1  0  0  0  0
 24  8  1  1  0  0  0
  8 55  1  0  0  0  0
 26  9  1  6  0  0  0
  9 56  1  0  0  0  0
 10 27  2  0  0  0  0
 11 28  1  0  0  0  0
 11 57  1  0  0  0  0
 12 13  1  0  0  0  0
 12 15  1  0  0  0  0
 12 16  1  0  0  0  0
 13 14  1  0  0  0  0
 13 19  1  0  0  0  0
 13 20  1  6  0  0  0
 14 16  1  0  0  0  0
 14 17  1  0  0  0  0
 14 35  1  6  0  0  0
 15 18  1  0  0  0  0
 15 21  1  1  0  0  0
 16 36  1  0  0  0  0
 16 37  1  0  0  0  0
 17 18  1  0  0  0  0
 17 38  1  0  0  0  0
 18 39  1  0  0  0  0
 18 40  1  0  0  0  0
 20 41  1  0  0  0  0
 20 42  1  0  0  0  0
 21 43  1  0  0  0  0
 21 44  1  0  0  0  0
 21 45  1  0  0  0  0
 22 23  1  0  0  0  0
 22 46  1  0  0  0  0
 23 24  1  0  0  0  0
 23 48  1  0  0  0  0
 24 26  1  0  0  0  0
 24 49  1  0  0  0  0
 25 26  1  0  0  0  0
 25 28  1  1  0  0  0
 25 50  1  0  0  0  0
 26 51  1  0  0  0  0
 27 29  1  0  0  0  0
 28 53  1  0  0  0  0
 28 54  1  0  0  0  0
 29 30  2  0  0  0  0
 29 31  1  0  0  0  0
 30 32  1  0  0  0  0
 30 58  1  0  0  0  0
 31 33  2  0  0  0  0
 31 59  1  0  0  0  0
 32 34  2  0  0  0  0
 32 60  1  0  0  0  0
 33 34  1  0  0  0  0
 33 61  1  0  0  0  0
 34 62  1  0  0  0  0
M  END
> <PUBCHEM_COMPOUND_CID>
24868421

> <PUBCHEM_COMPOUND_CANONICALIZED>
1

> <PUBCHEM_CACTVS_COMPLEXITY>
830

> <PUBCHEM_CACTVS_HBOND_ACCEPTOR>
11

> <PUBCHEM_CACTVS_HBOND_DONOR>
5

> <PUBCHEM_CACTVS_ROTATABLE_BOND>
7

> <PUBCHEM_CACTVS_SUBSKEYS>
AAADceB4PAAAAAAAAAAAAAAAAABgASAAAAA0YIAABIAAAAABAAAAGgAACAAAD1SwmAMyCIAABgCIAiDSCAACAAAkAAAIiAEACMgZNjaANRiicQAl4AEPqYfK7PzPgAAAAAAAAADCAAYQADCAAAAAAAAAAA==

> <PUBCHEM_IUPAC_OPENEYE_NAME>
[(1R,3R,4R,6S,9S)-4-hydroxy-6-methyl-8-oxo-1-[(2S,3R,4S,5S,6R)-3,4,5-trihydroxy-6-(hydroxymethyl)tetrahydropyran-2-yl]oxy-7-oxatricyclo[4.3.0.03,9]nonan-9-yl]methyl benzoate

> <PUBCHEM_IUPAC_CAS_NAME>
benzoic acid [(1R,3R,4R,6S,9S)-4-hydroxy-6-methyl-8-oxo-1-[[(2S,3R,4S,5S,6R)-3,4,5-trihydroxy-6-(hydroxymethyl)-2-oxanyl]oxy]-7-oxatricyclo[4.3.0.03,9]nonan-9-yl]methyl ester

> <PUBCHEM_IUPAC_NAME_MARKUP>
[(1<I>R</I>,3<I>R</I>,4<I>R</I>,6<I>S</I>,9<I>S</I>)-4-hydroxy-6-methyl-8-oxo-1-[(2<I>S</I>,3<I>R</I>,4<I>S</I>,5<I>S</I>,6<I>R</I>)-3,4,5-trihydroxy-6-(hydroxymethyl)oxan-2-yl]oxy-7-oxatricyclo[4.3.0.0<SUP>3,9</SUP>]nonan-9-yl]methyl benzoate

> <PUBCHEM_IUPAC_NAME>
[(1R,3R,4R,6S,9S)-4-hydroxy-6-methyl-8-oxo-1-[(2S,3R,4S,5S,6R)-3,4,5-trihydroxy-6-(hydroxymethyl)oxan-2-yl]oxy-7-oxatricyclo[4.3.0.03,9]nonan-9-yl]methyl benzoate

> <PUBCHEM_IUPAC_SYSTEMATIC_NAME>
[(1R,3R,4R,6S,9S)-1-[(2S,3R,4S,5S,6R)-6-(hydroxymethyl)-3,4,5-tris(oxidanyl)oxan-2-yl]oxy-6-methyl-4-oxidanyl-8-oxidanylidene-7-oxatricyclo[4.3.0.03,9]nonan-9-yl]methyl benzoate

> <PUBCHEM_IUPAC_TRADITIONAL_NAME>
benzoic acid [(1R,3R,4R,6S,9S)-4-hydroxy-8-keto-6-methyl-1-[(2S,3R,4S,5S,6R)-3,4,5-trihydroxy-6-methylol-tetrahydropyran-2-yl]oxy-7-oxatricyclo[4.3.0.03,9]nonan-9-yl]methyl ester

> <PUBCHEM_IUPAC_INCHI>
InChI=1S/C23H28O11/c1-21-8-13(25)12-7-23(21,33-19-17(28)16(27)15(26)14(9-24)32-19)22(12,20(30)34-21)10-31-18(29)11-5-3-2-4-6-11/h2-6,12-17,19,24-28H,7-10H2,1H3/t12-,13+,14+,15+,16-,17+,19-,21-,22-,23-/m0/s1

> <PUBCHEM_IUPAC_INCHIKEY>
QQUHMASGPODSIW-ICECTASOSA-N

> <PUBCHEM_XLOGP3_AA>
-1

> <PUBCHEM_EXACT_MASS>
480.16316171

> <PUBCHEM_MOLECULAR_FORMULA>
C23H28O11

> <PUBCHEM_MOLECULAR_WEIGHT>
480.5

> <PUBCHEM_OPENEYE_CAN_SMILES>
CC12CC(C3CC1(C3(C(=O)O2)COC(=O)C4=CC=CC=C4)OC5C(C(C(C(O5)CO)O)O)O)O

> <PUBCHEM_OPENEYE_ISO_SMILES>
C[C@]12C[C@H]([C@@H]3C[C@]1([C@@]3(C(=O)O2)COC(=O)C4=CC=CC=C4)O[C@H]5[C@@H]([C@H]([C@@H]([C@H](O5)CO)O)O)O)O

> <PUBCHEM_CACTVS_TPSA>
172

> <PUBCHEM_MONOISOTOPIC_WEIGHT>
480.16316171

> <PUBCHEM_TOTAL_CHARGE>
0

> <PUBCHEM_HEAVY_ATOM_COUNT>
34

> <PUBCHEM_ATOM_DEF_STEREO_COUNT>
10

> <PUBCHEM_ATOM_UDEF_STEREO_COUNT>
0

> <PUBCHEM_BOND_DEF_STEREO_COUNT>
0

> <PUBCHEM_BOND_UDEF_STEREO_COUNT>
0

> <PUBCHEM_ISOTOPIC_ATOM_COUNT>
0

> <PUBCHEM_COMPONENT_COUNT>
1

> <PUBCHEM_CACTVS_TAUTO_COUNT>
-1

> <PUBCHEM_COORDINATE_TYPE>
1
5
255

> <PUBCHEM_BONDANNOTATIONS>
13  20  6
14  35  6
15  21  5
12  2  6
22  2  5
25  28  5
29  30  8
29  31  8
17  3  6
30  32  8
31  33  8
32  34  8
33  34  8
23  7  6
24  8  5
26  9  6

$$$$
